      88
SCF Done            -426.05867949
C            50.993000000        53.067000000        57.215000000
C            50.595026499        52.506307498        56.020606945
C            49.496200549        51.494428527        56.005635937
C            48.863333102        51.069948404        57.215759344
C            49.289213779        51.670091114        58.494184082
C            50.322449534        52.658752513        58.485938118
C            50.196437033        53.858462447        59.348825684
C            50.761347665        55.014607677        58.617589065
C            51.240557374        54.538110901        57.297222219
C            51.101752110        55.379125879        56.149155719
C            50.675917061        54.779083120        54.870940795
C            50.414579172        53.374265132        54.817980309
C            49.242610851        52.874459269        54.058557842
C            48.677546570        51.718062480        54.789271967
C            47.257823890        51.517170640        54.828435658
C            46.603885591        51.089791251        56.089202850
C            47.395110621        50.869746847        57.264428020
C            46.913850777        51.352111956        58.583726344
C            48.088421175        51.846751286        59.345665416
C            47.965526535        53.008593804        60.176705335
C            49.040977997        54.029967380        60.181292097
C            48.406460450        55.365349462        60.301704548
C            48.953892618        56.485455350        59.593483445
C            50.154536519        56.308508289        58.740554195
C            50.000248540        57.171903219        57.544506037
C            50.466989056        56.713612648        56.268693499
C            49.642565946        56.935438802        55.053774219
C            49.773672026        55.736606935        54.187450756
C            48.638627063        55.253124699        53.457045947
C            48.371474037        53.795852123        53.387985500
C            46.902583058        53.594781669        53.435640339
C            46.355123336        52.474636113        54.143778985
C            45.146919988        52.647793276        54.987314018
C            45.301551567        51.793381172        56.190600762
C            44.836193057        52.259174442        57.465156204
C            45.656642193        52.036091595        58.681448473
C            45.529233897        53.235794156        59.545594817
C            46.664267832        53.713696467        60.281339418
C            46.936861049        55.170146603        60.360547247
C            46.064268313        56.100691775        59.704781334
C            46.630783905        57.259852262        58.971917041
C            48.051398167        57.450612400        58.918745287
C            48.697217318        57.873376072        57.651454921
C            47.900690538        58.088117157        56.477803771
C            48.380705211        57.609911430        55.157503950
C            47.207652412        57.111496242        54.397359534
C            47.334507125        55.953063661        53.560718789
C            46.261469369        54.928271287        53.545534431
C            45.095878704        55.096889944        54.364269383
C            44.529359438        53.937724988        55.097125869
C            44.048237170        54.419270701        56.415400303
C            44.199917518        53.594683995        57.579127163
C            44.628258060        54.198292629        58.864963038
C            44.890520836        55.606200156        58.943856189
C            44.732298828        56.459411626        57.740410010
C            44.318202224        55.875874411        56.497330227
C            44.964950966        56.294979574        55.229515438
C            46.003191858        57.284415746        55.246357275
C            46.431531537        57.888023614        56.532193461
C            45.807232509        57.481907255        57.757970911
C            52.022889463        52.122813202        56.519906573
C            52.151505354        50.744297974        57.122557582
C            52.290501125        50.596417336        58.507787285
C            52.409029903        49.318382552        59.066842051
C            52.389924139        48.188363110        58.240612609
C            52.253052781        48.336307758        56.855200642
O            54.069408885        52.726933237        53.161404678
O            56.125674660        53.657224480        52.924009454
C            52.134487267        49.614342168        56.296048862
C            53.159088841        52.849571345        55.799553074
C            54.442363610        52.018603713        55.771201496
C            55.570206612        52.741289887        55.033760198
C            55.171637003        53.039231001        53.608220467
C            55.842833276        53.976502862        51.580051230
H            52.306489674        51.467961710        59.145623426
H            52.516195546        49.204067645        60.135562087
H            52.482190854        47.202467418        58.672127101
H            52.239956559        47.464106169        56.218223221
H            52.030086651        49.728033481        55.227128978
H            52.853292841        53.082175356        54.779545919
H            53.353067950        53.802298676        56.292487107
H            54.247032517        51.061686271        55.287310344
H            54.757280768        51.796773747        56.790907074
H            55.813191851        53.677162386        55.537079268
H            56.473698427        52.131426179        55.030910548
H            55.628028297        53.070777563        51.013026324
H            54.978416760        54.637865261        51.521976919
H            56.696118540        54.478386360        51.123766188
