      28
SCF Done              -0.04928903
C            51.965000000        52.024000000        56.696000000
C            52.188227714        50.813638846        57.570748062
C            51.711042465        50.803255209        58.887002832
C            51.917918492        49.680685807        59.697657275
C            52.602982960        48.569145135        59.192448782
C            53.081343649        48.580230045        57.876754039
O            53.683035471        54.708119579        54.317823082
O            55.718200620        54.604412822        53.319473724
C            52.873998269        49.702414723        57.065846120
C            53.239878356        52.570251308        56.052317197
C            53.456401577        52.006851191        54.647340050
C            54.721826861        52.568446482        53.998160585
C            54.648282239        54.073123439        53.896797630
C            55.738659821        56.007530749        53.181584893
H            51.183165768        51.660808357        59.277404941
H            51.549855428        49.671845083        60.713064704
H            52.763313301        47.703151136        59.817758259
H            53.610753499        47.723068228        57.487089779
H            53.243907808        49.710300254        56.050993578
H            53.186046952        53.657833448        56.004253378
H            54.098310221        52.327083135        56.678575922
H            52.593982326        52.241262107        54.023383879
H            53.523207261        50.919890221        54.694991593
H            55.600557927        52.294834293        54.582252981
H            54.853825209        52.150183652        53.000226021
H            54.895171538        56.340691719        52.576986127
H            55.677328880        56.484966831        54.159500897
H            56.661501815        56.325622459        52.696438531
