     376
SCF Done           -1992.87671128
C            17.011000000         4.998000000        12.819000000
C            17.043380579         3.573076780        12.871807588
C            15.915094915         2.735207331        12.336701526
C            14.794604399         3.369632359        11.696501884
C            14.731380503         4.856867055        11.694876322
C            15.778698293         5.638585017        12.268348379
C            15.397247978         6.761734544        13.149216790
C            16.284288521         6.776109767        14.282586053
C            17.338654603         5.758088377        14.109956277
C            17.814440307         5.158676761        15.329465672
C            17.811354722         3.688841329        15.361595450
C            17.357783598         2.980229057        14.220279593
C            16.504435042         1.797704789        14.428462156
C            15.649652470         1.608911086        13.277635440
C            14.368974628         1.029225298        13.518641442
C            13.247376341         1.716184457        12.865026307
C            13.444362275         2.834153229        12.008611630
C            12.603317582         4.005550069        12.232854736
C            13.353295459         5.242600141        12.033290696
C            12.988127715         6.436318442        12.712095865
C            14.071766801         7.213014145        13.331688035
C            13.642719137         7.641767810        14.680512669
C            14.525184398         7.787749293        15.771892854
C            15.875977491         7.289465415        15.546301777
C            16.404152674         6.729856692        16.773526047
C            17.319015191         5.637050328        16.670440492
C            17.030199666         4.450548267        17.480564466
C            17.322749007         3.261388424        16.676761146
C            16.548127063         2.088483585        16.852471225
C            16.187384134         1.275284019        15.711906784
C            14.896488700         0.616826971        15.984297894
C            13.982793841         0.573183020        14.877877950
C            12.612138575         1.052435001        15.124918654
C            12.264718865         1.811654156        13.926138130
C            11.330013026         2.868767252        13.987932472
C            11.481818710         3.984972631        13.087386894
C            11.165870241         5.174787030        13.858412554
C            11.881267092         6.376382826        13.684989076
C            12.311236226         7.084205445        14.902009538
C            11.886661004         6.731445494        16.192160128
C            12.766250784         6.944166786        17.372814265
C            14.095554864         7.461860497        17.160499285
C            15.270274404         6.753896549        17.733004001
C            15.027462549         5.548565571        18.442289594
C            15.943991344         4.418684051        18.398712029
C            15.149662442         3.190072785        18.591369396
C            15.456533386         2.016871816        17.835279629
C            14.410276251         1.098388785        17.333708310
C            13.032047271         1.488517419        17.539418784
C            12.082297140         1.417819343        16.400616581
C            11.173633371         2.586697932        16.463215572
C            10.785669148         3.255261819        15.277494476
C            10.823451051         4.716916941        15.211432263
C            11.106392803         5.506414637        16.347183029
C            11.465068388         4.855849770        17.605403313
C            11.602177981         3.440736052        17.594523950
C            12.724811342         2.754136130        18.248010766
C            13.748728195         3.568741114        18.786420444
C            13.669928011         5.022754259        18.660391773
C            12.522256630         5.710563754        18.179360538
C            12.951007019        11.571811866        14.311176202
C            12.963992954        12.977163174        14.565106806
C            11.870515702        13.648060441        15.368247952
C            10.755246549        12.877817838        15.817442517
C            10.696461410        11.452025331        15.564613690
C            11.721884314        10.851504265        14.792242931
C            11.296045319         9.980795850        13.702629580
C            12.214025879        10.070726067        12.580559517
C            13.239980461        11.073886397        12.901709904
C            13.632884656        11.931180647        11.824264779
C            13.650544295        13.379539224        12.095473658
C            13.183488872        13.818724473        13.363899708
C            12.239110281        14.929842282        13.502466667
C            11.506485294        14.960169743        14.757738002
C            10.204283747        15.557298654        14.762752982
C             9.100703620        14.675348618        15.186160384
C             9.379040983        13.374574091        15.696946131
C             8.422756678        12.276650660        15.541240181
C             9.273752095        11.082263257        15.381913987
C             8.954553966        10.129090743        14.380811215
C             9.976603669         9.491795731        13.575571894
C             9.455623355         9.171366199        12.244616483
C            10.336050344         9.408796127        11.156623261
C            11.771158120         9.745687719        11.271653690
C            12.218082991        10.613203504        10.147345127
C            13.122634591        11.706209010        10.432217269
C            12.843892872        13.072236160         9.875750101
C            13.221016383        14.110916511        10.882164223
C            12.320042722        15.188527780        11.095414269
C            11.856920755        15.710915697        12.384928430
C            10.562567687        16.408533765        12.402845663
C             9.713524484        16.279020881        13.548101873
C             8.346373544        15.781920478        13.267330331
C             7.949637591        14.850013927        14.327559341
C             7.008733587        13.799677024        14.082867148
C             7.302339918        12.479866668        14.684704957
C             7.119172238        11.548902761        13.575357411
C             7.862157509        10.351659756        13.463284212
C             8.044778591         9.678564927        12.169249784
C             7.537273446        10.354771315        11.006577948
C             8.488560008        10.603642013         9.918138542
C             9.838943167        10.188652613        10.025133001
C            10.966489553        10.869953217         9.386590620
C            10.682492593        12.153707345         8.865962003
C            11.626281326        13.245406990         9.144611275
C            10.702367124        14.328486786         9.430311390
C            11.018731020        15.232790365        10.451233963
C            10.003244652        16.055556860        11.080068457
C             8.633189697        15.826924753        10.786421298
C             7.789077035        15.625861711        11.961521420
C             6.825918925        14.544372533        11.654549040
C             6.478287015        13.627990098        12.702129285
C             6.520785423        12.182276679        12.409017650
C             6.717103782        11.618734254        11.115064725
C             7.080775672        12.594517717        10.048388440
C             7.090209761        14.026990549        10.273551865
C             8.242192085        14.837650953         9.748873678
C             9.304353299        14.129485174         9.098576344
C             9.322197943        12.673118787         8.884891539
C             8.228035519        11.919804310         9.385796157
C             2.962943033        12.492352837         5.685769366
C             2.928147362        13.917114625         5.632656270
C             4.055422773        14.756381000         6.167294823
C             5.176842051        14.124458785         6.807937014
C             5.242624890        12.637501981         6.809803726
C             4.196601360        11.853957977         6.236465091
C             4.580976107        10.732731179         5.354753308
C             3.694714918        10.716596394         4.221251915
C             2.638341808        11.732457971         4.393834143
C             2.161114320        12.330302286         3.174334282
C             2.160494945        13.799906461         3.142297160
C             2.612341217        14.509224524         4.283943520
C             3.464857803        15.692113326         4.075506420
C             4.319259917        15.882228290         5.225961611
C             5.598381189        16.464780546         4.985352166
C             6.721200143        15.781215038         5.639937703
C             6.526082721        14.662962299         6.496319313
C             7.369173964        13.493159157         6.272021824
C             6.621459625        12.254842132         6.471103212
C             6.989282504        11.062095957         5.792266601
C             5.907160906        10.284290426         5.172167066
C             6.337191198         9.856038005         3.823773704
C             5.455387456         9.707279429         2.732407297
C             4.103787284        10.203373931         2.957850132
C             3.574602023        10.761801223         1.730678622
C             2.657389557        11.852529396         1.833468144
C             2.943386472        13.039282802         1.022697597
C             2.648754924        14.227744664         1.826998413
C             3.422240158        15.401431389         1.651907950
C             3.781398586        16.214960511         2.792333030
C             5.070592358        16.876613688         2.520334607
C             5.983880042        16.922705510         3.626815551
C             7.356064070        16.447492300         3.379991376
C             7.704217134        15.688362024         4.578848743
C             8.639707341        14.631971337         4.516569153
C             8.490242702        13.515835656         5.417178005
C             8.809397680        12.326787093         4.646590518
C             8.096877897        11.123430040         4.820185749
C             7.668195342        10.414996542         3.603015000
C             8.091551371        10.769366485         2.312976252
C             7.212803068        10.554629379         1.132085913
C             5.884800032        10.033670201         1.343789685
C             4.708919383        10.740097387         0.771692728
C             4.949295845        11.945581590         0.062053019
C             4.030087488        13.073328846         0.104994925
C             4.822714017        14.303274624        -0.087176464
C             4.513930847        15.475424438         0.669543152
C             5.557950624        16.396285238         1.170993813
C             6.937011696        16.009501259         0.965270957
C             7.886587470        16.082842118         2.104164859
C             8.796909776        14.915007249         2.041746295
C             9.185937688        14.246967300         3.227409854
C             9.151315729        12.785488752         3.293768030
C             8.869215892        11.995737329         2.158063216
C             8.509248511        12.645439003         0.900032186
C             8.369653283        14.060142524         0.910789725
C             7.246348857        14.744414610         0.256653545
C             6.224345539        13.927662981        -0.282144791
C             6.305803366        12.473791382        -0.156614739
C             7.454495368        11.788424191         0.325167589
C             7.023090636         5.925316357         4.192551556
C             7.008967668         4.519803354         3.939372363
C             8.101678782         3.847460228         3.136186619
C             9.217794155         4.616529671         2.687288831
C             9.277967998         6.042177533         2.939634417
C             8.252996945         6.644565916         3.711075586
C             8.680274155         7.515569656         4.800058706
C             7.762913144         7.426572905         5.922765819
C             6.736115788         6.424188927         5.602105239
C             6.343480009         5.567518842         6.679912211
C             6.323924424         4.119113387         6.409340163
C             6.789714813         3.678860634         5.140948654
C             7.732899687         2.566933385         5.002704440
C             8.464952803         2.535340387         3.747134475
C             9.766428948         1.936580001         3.741688560
C            10.870676627         2.817589969         3.318237237
C            10.593528732         4.118574622         2.807491655
C            11.551654425         5.215360396         2.961647598
C            10.701174147         6.409977175         3.121832345
C            11.021686561         7.363177665         4.122406204
C            10.000397823         8.002721080         4.926823922
C            10.522384088         8.322648342         6.257568834
C             9.642109301         8.086961516         7.346022291
C             8.206506343         7.751770270         7.231446960
C             7.759199381         6.885178966         8.356322551
C             6.854275273         5.792577590         8.071549931
C             7.131862129         4.426472120         8.628230562
C             6.752897031         3.387654323         7.622766613
C             7.652338354         2.308776722         7.409856605
C             8.114663667         1.785802254         6.120341158
C             9.408206837         1.086534900         6.102008745
C            10.256925005         1.214314327         4.956269638
C            11.624714639         1.710271006         5.236491906
C            12.021847190         2.641979006         4.176265779
C            12.963916428         3.691444397         4.420323761
C            12.672493395         5.011367096         3.817533765
C            12.857018926         5.942482476         4.926776891
C            12.114330713         7.139896055         5.039105579
C            11.932655882         7.813908086         6.332810627
C            12.440278513         7.138032704         7.495649053
C            11.488966965         6.890781684         8.584525359
C            10.138945539         7.307166163         8.477719955
C             9.010723173         6.627241211         9.116853420
C             9.293605749         5.343314915         9.637678137
C             8.349018526         4.252211295         9.359523246
C             9.271213666         3.167686639         9.074484427
C             8.953664932         2.263523116         8.053786295
C             9.968098177         1.439933913         7.424406757
C            11.338340806         1.667289693         7.717588689
C            12.182260137         1.866711583         6.542104037
C            13.146236288         2.947591372         6.848612239
C            13.494943919         3.863133160         5.800723369
C            13.455161932         5.308981968         6.093319704
C            13.259288335         5.873150330         7.387205650
C            12.894554449         4.898133331         8.454354927
C            12.883106631         3.465654607         8.229530000
C            11.730683940         2.656282168         8.754897823
C            10.669569090         3.365703441         9.405439856
C            10.653304434         4.822285945         9.618123374
C            11.748208206         5.574311977         9.116940222
C            17.970311092         4.271322736        11.827667860
C            17.491584457         4.051810526        10.375347262
C            17.027196605         2.841424299         9.845091108
C            16.685558677         2.697811984         8.502959558
C            16.694563959         3.783523258         7.636484156
C            17.032018858         4.997200290         8.175851084
O            22.072922607         6.649164336        14.686671125
O            21.338584007         4.515695257        14.610379605
C            17.452122590         5.123834439         9.496551519
C            19.466808017         4.382654345        12.186313355
C            20.135537056         5.758589284        12.093373470
C            21.540793095         5.655402138        12.671688209
C            21.448355068         5.743957493        14.133964976
C            21.117572054         4.314832174        15.978686258
H            16.960117496         1.969793720        10.457482577
H            16.391918523         1.733556229         8.169867088
H            16.441402482         3.771652593         6.589730683
H            17.106066195         5.822280343         7.516160843
H            17.830228323         6.056387313         9.844759737
H            20.013876602         3.739914196        11.514712428
H            19.633937461         3.975430925        13.180524075
H            20.131853867         6.215093990        11.106616688
H            19.557700008         6.423496567        12.700059113
H            22.207496612         6.434011415        12.329852633
H            22.019824849         4.696379533        12.447704974
H            20.385858168         4.992682002        16.413370932
H            22.004161798         4.356562987        16.598274240
H            20.738100537         3.304043396        16.036676078
C            14.078460714        12.133933263        15.219138505
C            14.008539702        12.102588845        16.730357457
C            14.848801290        12.940648695        17.457489751
C            15.055324634        12.857832709        18.828245005
C            14.459075445        11.780006752        19.450725607
C            13.669176832        10.874809721        18.731825117
O            18.702219834         8.935233823        13.403610835
O            18.600392107         9.402760053        15.451991227
C            13.396193715        11.048575985        17.387431098
C            15.457087182        12.194283417        14.541619389
C            16.078139303        10.815774300        14.462107986
C            17.526067298        10.908583697        14.116028539
C            18.220968178         9.605060037        14.292006338
C            19.585611308         8.477463826        15.588463039
H            15.451771768        13.604812828        16.896472660
H            15.717149219        13.507329885        19.377968184
H            14.639461499        11.716070774        20.496018816
H            13.219249487         9.999592753        19.130390219
H            12.843685446        10.284186820        16.857468729
H            16.124125969        12.735265393        15.209394828
H            15.460523552        12.728059390        13.587141225
H            16.035709329        10.393057854        15.462287722
H            15.558705387        10.147515097        13.773437053
H            18.012652501        11.673281979        14.725328279
H            17.662348679        11.176233745        13.090608743
H            19.652677032         8.148688272        14.565337007
H            19.442073042         7.661176488        16.278927933
H            20.496457970         8.949952198        15.927808601
C             2.002067163        13.218140822         6.676932425
C             2.479574511        13.436083911         8.130274922
C             2.937862776        14.647586942         8.662780692
C             3.278988678        14.791576087        10.004900683
C             3.276754681        13.704484150        10.869670647
C             2.947560988        12.488853449        10.327959957
O            -2.100429805        10.844920248         3.814394179
O            -1.364221040        12.977874049         3.891949972
C             2.528093299        12.362048714         9.006699005
C             0.505557266        13.110148243         6.317180268
C            -0.165332856        11.735453159         6.409181477
C            -1.569894086        11.839489916         5.830068156
C            -1.475418832        11.749475503         4.367846858
C            -1.143247321        13.180217226         2.523978919
H             3.000844179        15.520309681         8.052029717
H             3.566771590        15.757736788        10.337882750
H             3.530392156        13.718634750        11.916352937
H             2.881456453        11.660882653        10.985049787
H             2.158566027        11.427351172         8.655300740
H            -0.040831628        13.754470888         6.987869456
H             0.340125973        13.517752012         5.322813141
H            -0.161440361        11.277455704         7.395231739
H             0.411297331        11.071947121         5.800397982
H            -2.237999821        11.062126519         6.171957898
H            -2.047759356        12.799228054         6.053596159
H            -0.415297985        12.499505309         2.087311123
H            -2.030768828        13.144210483         1.905357251
H            -0.759079777        14.189495874         2.467518758
C             5.893553510         5.362779586         3.286734787
C             5.959363971         5.391871572         1.774947340
C             5.111579696         4.558687660         1.050506900
C             4.907968839         4.636416041        -0.321209751
C             5.509430617         5.709694666        -0.946668560
C             6.301600409         6.614020542        -0.229446136
O             1.269186516         8.565286850         5.095356005
O             1.373910464         8.092267681         3.048133627
C             6.573724831         6.443305309         1.115449860
C             4.516355841         5.303174831         3.967652371
C             3.895889377         6.682092105         4.044484864
C             2.448630323         6.592408273         4.395094998
C             1.751093861         7.893066399         4.209354908
C             0.387251988         9.015685132         2.908928587
H             4.504818081         3.898934001         1.613207669
H             4.242956173         3.989055900        -0.869592296
H             5.331344791         5.773362742        -1.992525048
H             6.754636353         7.485870438        -0.630901493
H             7.129162640         7.207092878         1.643144083
H             3.847994378         4.759665578         3.303590021
H             4.515145025         4.772347466         4.923803717
H             3.936543727         7.102373102         3.043117834
H             4.418683359         7.351079142         4.729574807
H             1.962136421         5.820623338         3.795165385
H             2.312383816         6.337194166         5.424067264
H             0.319604105         9.345811037         3.930937911
H             0.530587342         9.831446588         2.218581436
H            -0.522793989         8.542076398         2.569884092
Cl            5.394310330         9.034418666         8.261871697
C             4.406486307         8.902596962         8.692901812
C             3.288782370         8.648998833         7.909016288
H             3.448254134         8.537660618         6.857819598
C             1.994526868         8.536975611         8.440173724
H             1.168012488         8.392601134         7.793526592
C             1.744421944         8.586279577         9.804714242
H             0.752962315         8.483861644        10.234700666
C             2.863081328         8.834147886        10.588832832
H             2.700697143         8.954072583        11.638992764
C             4.157477832         8.945357376        10.057875088
H             4.982640986         9.097531709        10.704360826
Cl            2.357246913         5.625918470         1.092498953
C             1.864254008         6.376729061         0.499057232
C             2.538101613         7.551111409         0.103161038
H             3.582229721         7.689970589         0.326915362
C             1.849346144         8.584034280        -0.537266825
H             2.357369990         9.477839304        -0.874367993
C             0.467262156         8.472769915        -0.679195541
H            -0.032127287         9.260009961        -1.215793420
C            -0.205507454         7.294498453        -0.291516408
H            -1.253439670         7.160680871        -0.498083839
C             0.483637336         6.260160628         0.346906940
H            -0.028743794         5.374552969         0.698995203
