      60
SCF Done            -404.94433315
C            50.993000000        53.067000000        57.215000000
C            50.676986223        52.203535642        56.080700530
C            49.629108386        51.137635522        56.217926053
C            48.925759812        50.964205113        57.485717110
C            49.250614244        51.851823565        58.651746771
C            50.269976289        52.888718381        58.518254660
C            50.039411341        54.248504703        59.110573754
C            50.619938297        55.267180897        58.173392340
C            51.209288628        54.536970884        57.001862704
C            51.103676152        55.103476193        55.660226898
C            50.778822124        54.215858043        54.494197072
C            50.568420095        52.785888017        54.701533845
C            49.453444265        52.079901840        53.986387569
C            48.872917747        51.061225910        54.923569501
C            47.433956174        50.813464991        54.932225960
C            46.710932571        50.635183183        56.235481183
C            47.446545574        50.709513540        57.494615716
C            46.857195218        51.439723832        58.666145053
C            47.972170918        52.145710124        59.381291404
C            47.747879824        53.468494048        59.957492108
C            48.795757603        54.534394027        59.820266340
C            48.097840998        55.846956693        59.612629273
C            48.662570092        56.837912467        58.700950157
C            49.941013370        56.544026042        57.971405497
C            49.832446844        57.126378465        56.592238971
C            50.405759600        56.416038830        55.452589550
C            49.649569119        56.339628978        54.158232862
C            49.880134422        54.979842436        53.565913785
C            48.795499720        54.293067505        52.870228034
C            48.579211778        52.823096716        53.083364855
C            47.099997543        52.568405118        53.092263551
C            46.535268446        51.577449406        54.003942702
C            45.256825257        51.871336001        54.733487312
C            45.365391646        51.288983492        56.112653913
C            44.792078752        51.999323015        57.252303509
C            45.548269369        52.075732852        58.546660149
C            45.317704136        53.435519405        59.138979197
C            46.402338898        54.122294306        59.834664873
C            46.618626801        55.592265032        59.621527959
C            45.744394218        56.335459816        58.718505273
C            46.324920664        57.354135892        57.781323393
C            47.763882312        57.601896891        57.772666943
C            48.486905927        57.780178681        56.469411733
C            47.751292870        57.705848061        55.210277249
C            48.340643231        56.975637943        54.038747938
C            47.225667572        56.269651560        53.323601582
C            47.449958716        54.946867693        52.747400743
C            46.402080811        53.880967713        52.884626258
C            45.158426750        54.166857021        53.594318405
C            44.577900296        53.148180989        54.531500288
C            43.988549962        53.878391108        55.703029662
C            44.094161972        53.311885616        57.044666249
C            44.419016348        54.199503817        58.210695957
C            44.629418546        55.629473551        58.003358964
C            44.520852193        56.211826035        56.624192303
C            44.204837852        55.348361799        55.489892733
C            44.927861477        55.526643541        54.186637503
C            45.947224393        56.563538141        54.053146167
C            46.272078664        57.451156392        55.219175915
C            45.568730071        57.277726012        56.486966823
