      88
SCF Done            -434.82325081
C            50.993000000        53.067000000        57.215000000
C            50.592045018        52.393557034        56.011356662
C            49.506534086        51.383165423        56.053873936
C            48.857793864        51.078849131        57.296316450
C            49.271932357        51.774524558        58.539665610
C            50.321171652        52.751585104        58.499612147
C            50.190017213        54.013027606        59.269690175
C            50.780201904        55.107761577        58.460592877
C            51.276218499        54.523102941        57.190316735
C            51.149909130        55.257983749        55.965104154
C            50.735772944        54.562308663        54.721755131
C            50.461577521        53.154673704        54.744584053
C            49.295599018        52.613847524        54.003334810
C            48.705413060        51.519113247        54.812432576
C            47.282272451        51.345644195        54.854692452
C            46.611222535        51.030489349        56.139857574
C            47.385635729        50.899371638        57.340000226
C            46.889916470        51.484067436        58.610295978
C            48.055685199        52.024959551        59.351701756
C            47.929038493        53.244243634        60.096385708
C            49.014244084        54.255117732        60.054650314
C            48.388209380        55.600245161        60.057643163
C            48.958742754        56.658526649        59.275486951
C            50.174940197        56.408092660        58.463426572
C            50.044625194        57.168444087        57.196081377
C            50.523830121        56.603120743        55.968067199
C            49.722822064        56.738821527        54.726603234
C            49.853785172        55.477537132        53.956363018
C            48.726815077        54.954695408        53.239548079
C            48.442973546        53.498624382        53.263464772
C            46.970843197        53.319119296        53.307120777
C            46.400308877        52.260837336        54.089277641
C            45.184132293        52.511272582        54.901377549
C            45.314477423        51.750860335        56.168698969
C            44.835270051        52.316115648        57.396737127
C            45.636315754        52.180445811        58.638198843
C            45.505326148        53.441721774        59.408478590
C            46.632295383        53.964618690        60.125241723
C            46.916077410        55.420713567        60.101281320
C            46.063463986        56.305448811        59.361324325
C            46.653638512        57.400162657        58.552241746
C            48.076784215        57.573706959        58.510043372
C            48.747907934        57.888866420        57.224903282
C            47.973549940        58.020027394        56.024737370
C            48.469267359        57.435284072        54.754444090
C            47.303494301        56.894419830        54.012994897
C            47.430092655        55.675108878        53.268356900
C            46.344840535        54.664266530        53.310137054
C            45.169122139        54.906364526        54.095195778
C            44.578947615        53.811651070        54.904278936
C            44.083246585        54.396367024        56.174594032
C            44.209231247        53.661247796        57.399735489
C            44.623350315        54.356912981        58.643065261
C            44.897702262        55.764548735        58.619879510
C            44.767391919        56.524970977        57.352561993
C            44.367054842        55.852455668        56.150607765
C            45.038168614        56.167649576        54.865470903
C            46.087294664        57.144862390        54.825059621
C            46.501412399        57.840529325        56.068389499
C            45.852623958        57.535832270        57.310757181
C            51.931448850        52.049522637        56.614636742
C            52.015900052        50.721098948        57.327513076
C            52.109864969        50.681031782        58.723803775
C            52.187485456        49.449472537        59.385015618
C            52.172481813        48.258090927        58.649926833
C            52.080623077        48.298165799        57.253521709
O            54.135821066        52.227851853        53.307348007
O            56.244737208        53.032399618        53.072260960
C            52.002964608        49.529719481        56.592210543
C            53.130399439        52.649056553        55.879045079
C            54.370130599        51.760446649        55.986529044
C            55.561105946        52.354506796        55.233675344
C            55.234202116        52.530304436        53.770108057
C            56.031419238        53.231432040        51.692749884
H            52.122691455        51.599917400        59.291397921
H            52.259935984        49.418325149        60.462278685
H            52.233201315        47.308059883        59.160283823
H            52.070685843        47.378625330        56.686956305
H            51.933304404        49.560167842        55.514883369
H            52.877063176        52.795196576        54.829044416
H            53.352654212        53.635270372        56.286834647
H            54.145762112        50.771057704        55.588073907
H            54.633195839        51.624658614        57.035598538
H            55.831214008        53.322652563        55.655537805
H            56.432021764        51.705875438        55.328670914
H            55.792373422        52.285726274        51.206432691
H            55.205270110        53.924348036        51.533581811
H            56.926657360        53.644907323        51.228242507
