      88
SCF Done            -424.57367161
C            50.993000000        53.067000000        57.215000000
C            50.569804867        52.539742172        55.965955588
C            49.429257423        51.581980165        55.930465096
C            48.769835695        51.159968834        57.126523701
C            49.209476294        51.707846909        58.424380567
C            50.285229768        52.648673706        58.457392676
C            50.199247957        53.832250398        59.348965166
C            50.819117719        54.983131233        58.652905334
C            51.294112651        54.522100291        57.324286032
C            51.194937276        55.393766410        56.195808834
C            50.755338938        54.845966574        54.898128527
C            50.438375315        53.455771638        54.798251069
C            49.249594601        53.027204770        54.019465327
C            48.629591471        51.876131209        54.715085360
C            47.202464837        51.736235332        54.739821728
C            46.521624787        51.304750166        55.984655907
C            47.293624962        51.021551250        57.159262917
C            46.821271395        51.488415250        58.486944218
C            48.008728285        51.912721613        59.270352829
C            47.926571290        53.055611476        60.132290443
C            49.043393413        54.030421022        60.174556704
C            48.464201472        55.387595273        60.325326453
C            49.064481454        56.501896536        59.651569682
C            50.264393570        56.297031367        58.804014297
C            50.156811476        57.195648120        57.629187029
C            50.614773313        56.750373944        56.345497480
C            49.811457845        57.039167591        55.130934305
C            49.899665888        55.859204112        54.234395476
C            48.751883439        55.444808420        53.481581899
C            48.423546168        54.002955216        53.369516497
C            46.947193843        53.863309158        53.400951662
C            46.346890196        52.748977829        54.074640200
C            45.140162000        52.950866938        54.913840436
C            45.248921576        52.059398461        56.095088864
C            44.792489906        52.510497038        57.378043458
C            45.592614828        52.221104253        58.593837771
C            45.507536957        53.401596984        59.488991871
C            46.654972123        53.811632785        60.245995706
C            46.987277633        55.252762878        60.366860354
C            46.160370176        56.236225441        59.729376222
C            46.781574903        57.389373327        59.032171153
C            48.209365432        57.521329177        58.995257211
C            48.883745174        57.948942936        57.744555348
C            48.107517588        58.227993595        56.570927303
C            48.578756673        57.764356179        55.242360371
C            47.392472609        57.336893008        54.459976232
C            47.477700648        56.196711392        53.593648743
C            46.362260856        55.219443426        53.542255635
C            45.197728240        55.415562869        54.356356768
C            44.576520523        54.262411530        55.053554940
C            44.104680073        54.728806610        56.380595009
C            44.211530854        53.868040852        57.522926172
C            44.653504593        54.418834844        58.827716763
C            44.973780174        55.811891309        58.946344736
C            44.862216660        56.702506767        57.764956649
C            44.434942292        56.170030630        56.503560004
C            45.109886271        56.594778778        55.252416798
C            46.188801245        57.538474179        55.303758825
C            46.630774529        58.089267981        56.608548559
C            45.978984545        57.677862565        57.818164050
C            51.947737551        52.111468405        56.487317966
C            52.010641448        50.713603884        57.054807086
C            52.128652286        50.524192169        58.436922916
C            52.186296311        49.228242525        58.963375970
C            52.127284498        48.121782474        58.107674388
C            52.011395470        48.311171676        56.725397870
O            54.051558493        52.709897524        53.163782387
O            56.150305029        53.550854203        52.968633238
C            51.953717123        49.607125272        56.198846623
C            53.122916969        52.803934142        55.796321694
C            54.367012978        51.915827137        55.756402950
C            55.533754595        52.605074632        55.048038413
C            55.162702962        52.959003157        53.627882102
C            55.894938503        53.918880150        51.631655462
H            52.175420607        51.377499116        59.097498429
H            52.277270777        49.081887443        60.029686406
H            52.172581282        47.122023960        58.514046769
H            51.967494251        47.457062482        56.065687506
H            51.865496463        49.752741446        55.132344073
H            52.837893481        53.077291828        54.780413471
H            53.355523790        53.733385086        56.316240142
H            54.132705592        50.982045016        55.245377020
H            54.661675394        51.652850656        56.772374275
H            55.814702544        53.514990451        55.578465322
H            56.408275324        51.954454020        55.036086118
H            55.644193135        53.039596324        51.038372397
H            55.062288588        54.620644730        51.584678300
H            56.774529640        54.393069404        51.196169715
