      60
SCF Done            -434.91727806
C            50.993000000        53.067000000        57.215000000
C            50.683278554        52.218328706        56.100966312
C            49.647772578        51.164454894        56.236582243
C            48.956447131        50.994323129        57.481719138
C            49.276829867        51.872208706        58.634101954
C            50.277876500        52.891011684        58.502998622
C            50.049324151        54.235241224        59.087913309
C            50.623194729        55.242009633        58.161411846
C            51.206418473        54.519996559        57.003887623
C            51.103012533        55.075968724        55.685766140
C            50.782629422        54.198083301        54.533383445
C            50.576313981        52.793439730        54.737470561
C            49.474700254        52.095003880        54.030399745
C            48.900830076        51.088235887        54.956901820
C            47.487418617        50.844421757        54.964943758
C            46.772295391        50.668433441        56.252942770
C            47.494381314        50.742115956        57.490037751
C            46.911157637        51.464128844        58.647561844
C            48.012771503        52.162564634        59.354632469
C            47.791824951        53.462060838        59.920082052
C            48.827330939        54.515934674        59.784465849
C            48.137142624        55.813058527        59.578494408
C            48.691915388        56.786323264        58.682824637
C            49.955974047        56.495967629        57.962294435
C            49.849009044        57.071078371        56.598798633
C            50.412824084        56.373092506        55.479794700
C            49.665881343        56.296873674        54.200114333
C            49.894433715        54.952643936        53.615200060
C            48.829479392        54.277450816        52.931659229
C            48.616061524        52.824454422        53.142771872
C            47.153995577        52.572247187        53.151090679
C            46.599222767        51.598982543        54.046760520
C            45.335164217        51.889338306        54.767290879
C            45.442128983        51.314227349        56.130786579
C            44.878313941        52.012213130        57.249790564
C            45.625256638        52.088432071        58.529470808
C            45.396704252        53.432661673        59.114385345
C            46.461658669        54.107854829        59.797926068
C            46.675076646        55.560851258        59.586813204
C            45.816438164        56.290301606        58.699185192
C            46.390308230        57.297069607        57.772683188
C            47.803719455        57.540883953        57.764641389
C            48.518842608        57.716872289        56.476642376
C            47.796756713        57.643189597        55.239547355
C            48.379980279        56.921176766        54.082023248
C            47.278366441        56.222740981        53.374952642
C            47.499313093        54.923244708        52.809502841
C            46.463807027        53.869370924        52.945118925
C            45.241813905        54.150064251        53.641671579
C            44.667943884        53.143296384        54.568173653
C            44.084720328        53.865309251        55.725697834
C            44.188125608        53.309336903        57.043819032
C            44.508508407        54.187222413        58.196201907
C            44.714824265        55.591866008        57.992114585
C            44.607859394        56.166976899        56.628618922
C            44.298138261        55.318305684        55.514584999
C            45.013261563        55.494293936        54.226586087
C            46.014308027        56.513096843        54.095483164
C            46.334690800        57.390982267        55.247866068
C            45.643365473        57.220850620        56.493002939
