     400
SCF Done           -2005.50752072
C             0.993000000         3.067000000         7.215000000
C             0.639964754         2.268981658         6.086244854
C            -0.606858956         1.419366749         6.190297687
C            -1.368229694         1.310965489         7.396074412
C            -0.952746245         2.075444997         8.590017963
C             0.174780836         2.953959153         8.473280815
C             0.036128876         4.342159243         8.960381259
C             0.822053163         5.299936395         8.167979311
C             1.347214342         4.514550018         7.016558824
C             1.344233156         5.105876864         5.699562269
C             0.907836693         4.277218280         4.542627619
C             0.547211227         2.901064695         4.722663101
C            -0.650152177         2.366475178         4.005413624
C            -1.372076894         1.462619573         4.912874813
C            -2.805559329         1.312294269         4.845953419
C            -3.567495299         1.223892227         6.109527585
C            -2.852595359         1.249883807         7.339117655
C            -3.372152361         2.011039959         8.491915718
C            -2.208678713         2.533607891         9.238972886
C            -2.292594498         3.844596098         9.759714088
C            -1.178295153         4.757785036         9.581895246
C            -1.643201197         6.145316486         9.540195632
C            -0.932940896         7.039746503         8.676650524
C             0.325730045         6.634884747         7.995041325
C             0.298645249         7.222277936         6.626280167
C             0.809010203         6.487683474         5.504782963
C             0.011488101         6.472882008         4.252295308
C             0.069570705         5.119731699         3.674633983
C            -1.037290713         4.592839741         2.941570186
C            -1.422041270         3.170998213         3.100355144
C            -2.904240922         3.066103756         3.068555782
C            -3.608119572         2.137797023         3.899483530
C            -4.856896975         2.588637807         4.602955553
C            -4.814548694         2.014939626         5.974804441
C            -5.286980863         2.780107615         7.079439208
C            -4.576076904         2.752297840         8.383362062
C            -4.673838863         4.096712770         8.994837728
C            -3.523857765         4.636954001         9.654748203
C            -3.130595219         6.051601567         9.532556014
C            -3.869629939         6.837219442         8.600716712
C            -3.147124834         7.724306513         7.676668868
C            -1.729243283         7.812286275         7.705119544
C            -0.978021514         7.954554657         6.472646968
C            -1.686944047         7.996935631         5.233504332
C            -1.172242888         7.241583894         4.090170102
C            -2.339553583         6.677710214         3.380006501
C            -2.262621091         5.380710010         2.818230900
C            -3.379930395         4.459604625         2.999024182
C            -4.590973875         4.878848606         3.627109164
C            -5.351505960         3.922452702         4.440580194
C            -5.866229463         4.714597134         5.597349843
C            -5.862398168         4.135080848         6.899852643
C            -5.443136667         4.940592921         8.067119516
C            -5.013630858         6.289488602         7.864943930
C            -5.061179521         6.916560027         6.524420323
C            -5.483849960         6.142397329         5.400485374
C            -4.711743975         6.248772553         4.133623474
C            -3.581420968         7.117760816         4.035598637
C            -3.149751742         7.907399698         5.207914331
C            -3.886893339         7.808631835         6.424028242
C             2.971989540        11.378647170         2.008872776
C             3.384372900        10.537080671         3.092661665
C             4.625571251         9.712805235         2.913452288
C             5.334076595         9.647750344         1.679031394
C             4.886295662        10.456616476         0.522268508
C             3.774576493        11.352112387         0.724433188
C             3.934789103        12.760574340         0.307055075
C             3.197170783        13.687202806         1.176628689
C             2.674723454        12.842886526         2.303769054
C             2.758003639        13.380604145         3.644203623
C             3.211409757        12.492684505         4.749314582
C             3.514179122        11.109635627         4.496159858
C             4.735483379        10.543056531         5.157440196
C             5.417896104         9.698664863         4.167962723
C             6.845301093         9.533161067         4.173974289
C             7.562485012         9.477024408         2.886899545
C             6.810996376         9.583166188         1.690791698
C             7.311907723        10.370193283         0.553790794
C             6.134049523        10.921696102        -0.148927300
C             6.233964854        12.260107898        -0.599333495
C             5.141719206        13.183756038        -0.327012925
C             5.646877961        14.550640519        -0.231955188
C             4.982451391        15.424212247         0.687888310
C             3.727893196        15.010951107         1.386492814
C             3.817225290        15.542265761         2.783210785
C             3.344882598        14.742279113         3.879230196
C             4.198976673        14.633316413         5.088661946
C             4.106566471        13.277068745         5.630125127
C             5.226322545        12.708893102         6.314092101
C             5.554369149        11.284164099         6.083304521
C             7.040451389        11.167784978         6.044775023
C             7.684815572        10.297967890         5.118789284
C             8.906999684        10.760354045         4.392045402
C             8.820071910        10.239166824         3.010331274
C             9.279238463        11.037059895         1.928328091
C             8.539784570        11.070585112         0.649284591
C             8.643943772        12.438715538         0.109765863
C             7.485519273        13.024093023        -0.497368004
C             7.134397977        14.436567115        -0.287759361
C             7.927632263        15.166723023         0.648705171
C             7.260976198        16.040344935         1.628800246
C             5.840709169        16.149469514         1.647464901
C             5.137338072        16.201346193         2.912059478
C             5.909785276        16.127145370         4.105489704
C             5.414948642        15.345816295         5.229274697
C             6.581618941        14.787745470         5.928499275
C             6.479367072        13.466815887         6.431615697
C             7.570894333        12.532324618         6.165539452
C             8.773231825        12.961270416         5.518917146
C             9.481722288        12.045354305         4.621792323
C             9.997104695        12.871559474         3.489269253
C             9.912037480        12.357882596         2.159255159
C             9.471116595        13.222150278         1.040354753
C             9.088130316        14.570255012         1.317285422
C             9.202414564        15.130507257         2.685145221
C             9.638903079        14.297243184         3.763090303
C             8.911284881        14.352988010         5.064562077
C             7.813523988        15.249762855         5.252432419
C             7.365200176        16.077744632         4.106159375
C             8.054965276        16.041323607         2.860770255
C             7.413858405        14.136183611        11.257402948
C             7.798075058        14.980807162        12.346194488
C             8.961358288        15.908088599        12.152246876
C             9.638391643        16.034584907        10.898033893
C             9.212204750        15.210332510         9.740386168
C             8.160270845        14.250344209         9.953137716
C             8.360434067        12.855218779         9.499998881
C             7.689817524        11.874647305        10.367747179
C             7.171386157        12.665718021        11.526608356
C             7.304864039        12.109186469        12.855016272
C             7.745341767        12.990570660        13.965794078
C             7.987915475        14.383082181        13.721289330
C             9.175478567        15.011104429        14.373627421
C             9.780425474        15.929684408        13.391983773
C            11.198855496        16.152155690        13.367058240
C            11.887347993        16.259743571        12.066757503
C            11.113065280        16.148835946        10.883983017
C            11.628310849        15.398799286         9.731039994
C            10.464417791        14.807166677         9.042645948
C            10.612518123        13.480767339         8.575319292
C             9.570258795        12.498592019         8.832421283
C            10.143813158        11.157050344         8.896894917
C             9.549132075        10.245346133         9.823888528
C             8.295889305        10.582499227        10.550975670
C             8.453672716        10.044370168        11.930644025
C             7.966503456        10.784659756        13.057297835
C             8.827499827        10.890178125        14.268344264
C             8.682148883        12.238273328        14.830598922
C             9.775881548        12.853986666        15.514351973
C            10.035133475        14.295485976        15.280649329
C            11.507800055        14.479908174        15.196738503
C            12.083448169        15.388490963        14.267558538
C            13.310983441        15.005246190        13.509219605
C            13.190641093        15.566092892        12.145043050
C            13.680758058        14.827311381        11.035503087
C            12.899418718        14.769419966         9.779465048
C            13.038413003        13.407820905         9.233939978
C            11.894052248        12.775766691         8.655089075
C            11.619857824        11.342078776         8.822608222
C            12.476787797        10.630372913         9.714408373
C            11.873237275         9.719451731        10.698371268
C            10.462637947         9.549051229        10.751843471
C             9.794160653         9.429388924        12.027353477
C            10.570399961         9.482727669        13.218247785
C            10.075393257        10.217620690        14.378164993
C            11.227557636        10.831033658        15.068374478
C            11.069500805        12.150691052        15.575557913
C            12.106588632        13.146401929        15.288305668
C            13.322340747        12.799981493        14.625058248
C            13.952137429        13.754182922        13.712160758
C            14.502187733        12.984537677        12.562174509
C            14.356928529        13.516171570        11.244997464
C            13.921382659        12.652511560        10.126190416
C            13.607141828        11.286735202        10.384164126
C            13.772582909        10.721665874        11.740203000
C            14.212094017        11.542034282        12.821940978
C            13.508935864        11.431612022        14.131269106
C            12.452512424        10.494342240        14.314297038
C            12.008908882         9.688521296        13.164189165
C            12.675283186         9.763789533        11.915256390
C             5.357363870         5.789366478        16.408209664
C             4.965342744         6.631964940        15.318378270
C             3.810880614         7.557717576        15.502029267
C             3.126402892         7.674588684        16.748307348
C             3.544211640         6.849578036        17.910129811
C             4.601298283         5.892904353        17.707488969
C             4.394144451         4.493924084        18.150056559
C             5.074441337         3.524403628        17.279735604
C             5.600175102         4.323586303        16.131015193
C             5.495838555         3.774896688        14.799062432
C             5.072191537         4.661921648        13.686098436
C             4.810094569         6.048809122        13.937947132
C             3.635428949         6.680706464        13.270180356
C             3.014981091         7.594047051        14.245863543
C             1.596812250         7.820950746        14.250001329
C             0.897001439         7.915005305        15.545932002
C             1.654384472         7.786702609        16.736849280
C             1.137593663         7.021829244        17.875558303
C             2.286226823         6.434254920        18.591022099
C             2.136001274         5.108753674        19.064601053
C             3.186533488         4.128519941        18.822803830
C             2.612582711         2.789317753        18.740958559
C             3.221344788         1.891777983        17.805666803
C             4.484847115         2.225804579        17.091297415
C             4.360937619         1.684362029        15.703354369
C             4.853694417         2.441335756        14.585595072
C             4.004463701         2.569126061        13.368034055
C             4.153759007         3.914472463        12.798792985
C             3.065123109         4.533442522        12.107394516
C             2.792653213         5.974301184        12.340180045
C             1.317514453         6.164200890        12.397686850
C             0.725717368         7.067801018        13.325374908
C            -0.506624682         6.672564310        14.074144993
C            -0.401390986         7.219156806        15.446062361
C            -0.891899412         6.464134933        16.544533272
C            -0.124761779         6.390139616        17.804061264
C            -0.269655843         5.033936128        18.352173269
C             0.856354959         4.401085916        18.964976204
C             1.128032455         2.965006873        18.804822972
C             0.287288699         2.258768931        17.889745925
C             0.909724914         1.357568222        16.904842823
C             2.322655087         1.197459349        16.864501855
C             3.013236910         1.085193309        15.598275743
C             2.247312485         1.174576202        14.405658199
C             2.752817054         1.912119281        13.258078792
C             1.612916139         2.519250771        12.546976187
C             1.772147517         3.834156708        12.031954621
C             0.727219985         4.825646640        12.300067792
C            -0.491997297         4.468367523        12.955153402
C            -1.137529069         5.416302014        13.862230836
C            -1.697556874         4.637405827        15.003578537
C            -1.566426042         5.156478611        16.325641493
C            -1.144956468         4.286742744        17.446931526
C            -0.825424542         2.923718322        17.192337329
C            -0.973085042         2.373833575        15.829715311
C            -1.400961761         3.196780490        14.745233373
C            -0.682328498         3.099495601        13.444951333
C             0.382570122         2.170797205        13.281026737
C             0.812670907         1.366598477        14.436343117
C             0.129382217         1.423363974        15.674454667
C             2.046088860         2.062501992         6.761332489
C             2.190036632         0.911234489         7.782866077
C             2.310815612         1.145938146         9.160508571
C             2.756058524         0.109355148         9.983853572
C             2.951946469        -1.167681701         9.497155167
C             2.527232053        -1.455184548         8.233740535
O             3.314788367         4.573703922         3.015635845
O             5.298966680         4.957447285         3.793764565
C             2.073558572        -0.429898489         7.399205840
C             3.217598584         2.928494411         6.174184610
C             4.379958500         2.363418846         5.373326579
C             4.562728334         2.838112024         3.918973615
C             4.220875788         4.272809859         3.772429867
C             5.195530791         6.291993024         3.493953062
H             2.308611221         2.150075859         9.551946285
H             3.066628461         0.267449783        10.985317881
H             3.294413833        -1.958932928        10.119956621
H             2.561007115        -2.492092357         7.974332565
H             1.784238681        -0.688472902         6.391603761
H             2.797191401         3.743312785         5.587510658
H             3.633509988         3.432235646         7.026009869
H             4.106475608         1.329459964         5.424725814
H             5.352649953         2.486486271         5.846999781
H             5.592534093         2.669168229         3.582276495
H             3.915626361         2.312991672         3.211778055
H             4.652258603         6.483711612         2.590652592
H             4.745441126         6.810815747         4.328742524
H             6.171362893         6.682072450         3.253507541
C             2.023235029        10.209153237         2.393706287
C             1.948027867         9.077717271         1.342733138
C             1.782208351         9.295044149        -0.040048764
C             1.281176298         8.263092592        -0.848778616
C             1.071230224         7.013997900        -0.294824656
C             1.567689726         6.735330084         0.943343677
O             0.799483202        13.189206951         6.092221402
O            -1.262420482        13.302916927         5.472428522
C             2.083718052         7.749199278         1.739905607
C             0.767281896        10.622236995         3.221623082
C             0.950619113        10.665044136         4.746303130
C            -0.264293245        11.240452206         5.485639531
C            -0.131658514        12.711321321         5.482770939
C            -1.162375500        14.651988799         5.727890038
H             1.769583745        10.295831032        -0.438617260
H             0.948813492         8.371968410        -1.862256176
H             0.694591355         6.191934579        -0.840205370
H             1.537401196         5.706728327         1.226141004
H             2.381183456         7.487640242         2.743120897
H             0.351257510        11.561716067         2.853546840
H            -0.006351494         9.887120565         3.061433359
H             1.814415849        11.264917248         5.026162537
H             1.197082210         9.670553473         5.096441565
H            -1.246229251        10.969676247         5.089260255
H            -0.200048704        10.919223338         6.526435912
H            -0.519177687        14.858853858         6.566535551
H            -0.790420315        15.152989715         4.850182613
H            -2.113616158        15.061610393         6.029279472
C             6.385972689        15.183497603        11.717767073
C             6.309587616        16.398397673        10.740755462
C             6.400147207        16.242249627         9.341930739
C             6.011496139        17.288554868         8.488434484
C             5.746309093        18.547599216         8.994452215
C             5.983126005        18.775421148        10.316787960
O             5.105952012        12.707369200        15.405879497
O             3.110552909        12.350338559        14.718550373
C             6.350408001        17.733042245        11.177739314
C             5.237513189        14.414860145        12.469968068
C             4.127254074        15.083832537        13.265021703
C             3.844948213        14.497371452        14.660744348
C             4.175085034        13.052008026        14.708320205
C             3.300839931        11.023326404        15.025761929
H             6.555064463        15.260047522         8.930619200
H             5.919347024        17.211971937         7.429680472
H             5.506301853        19.386376322         8.380216804
H             5.888793157        19.804950975        10.581857128
H             6.541431353        17.991114605        12.209468339
H             5.723242481        13.738941221        13.171770876
H             4.766872921        13.743921737        11.774123508
H             4.506666421        16.086175934        13.364453849
H             3.170108253        15.122360630        12.741842376
H             2.807845061        14.652584027        14.965727530
H             4.440568678        14.974399503        15.443255412
H             3.923437605        10.878178970        15.891368037
H             3.698664233        10.503489602        14.162324287
H             2.355195118        10.607728635        15.328765207
C             6.365813031         6.852197754        15.931737313
C             6.461910380         8.094358852        16.881251858
C             6.337021941         7.969133191        18.277749850
C             6.790632000         9.003927080        19.111341773
C             7.135700926        10.247524578        18.626113552
C             6.848035818        10.474507098        17.307875064
O             7.643607322         4.340944300        12.282999458
O             9.677762841         4.081329501        12.866470989
C             6.460717339         9.432621054        16.447184140
C             7.466298201         6.173809931        15.047499802
C             7.897654384         6.956998112        13.836856001
C             8.848135341         6.224709442        12.876297477
C             8.598487740         4.760505386        12.893901939
C             9.482727878         2.744896838        12.576015658
H             6.101046088         7.012394368        18.709160601
H             6.847961261         8.965279243        20.170328166
H             7.436481854        11.032907512        19.297252782
H             6.949288217        11.495839421        17.019349680
H             6.266707672         9.695056057        15.417087485
H             7.046563372         5.236280220        14.686152079
H             8.371540791         5.841737513        15.524391330
H             7.063353920         7.376377766        13.272043706
H             8.388336883         7.780044467        14.309168916
H             9.894860898         6.424166516        13.091260182
H             8.665823366         6.576924181        11.857764887
H             8.901423892         2.588086707        11.680322923
H             9.029768126         2.231787459        13.413407665
H            10.434169417         2.311527502        12.325199332
Cl            4.194330582         5.905920285         6.827175481
Cl            4.146922020         4.823146808         9.142838580
C             4.683626346         6.339577397         7.688155682
C             4.695896252         5.739068684         8.952988148
C             5.540648102         6.275700708         9.941592949
C             6.075245622         7.559547548         9.837005854
C             5.943931080         8.241118945         8.614473621
C             5.291754034         7.588171762         7.551855226
H             5.674188000         5.786487179        10.883900651
H             6.618187623         7.961803976        10.676395723
H             6.383932202         9.219569051         8.469420263
H             5.259083257         8.035487538         6.588952095
Cl            4.393374528        11.294955243        11.633239816
Cl            4.334176218        12.505727285         9.381100010
C             3.864604663        10.918726349        10.769254941
C             3.794062559        11.579002387         9.538941306
C             2.926264966        11.061639557         8.557777295
C             2.461239312         9.751893213         8.604271179
C             2.601296033         9.040547224         9.807542476
C             3.280000295         9.659421391        10.871074147
H             2.708167258        11.575127461         7.642690129
H             1.913589131         9.400036567         7.748786236
H             2.197233146         8.046544767         9.939271887
H             3.377480836         9.181852846        11.812665884
Cl           13.626353171        14.141586129         2.432740224
Cl           13.722492491        13.101371248         0.134457300
C            13.153680638        14.605545429         1.577029790
C            13.164516059        14.015406243         0.310773957
C            12.332101308        14.564628953        -0.680627056
C            11.797623907        15.851156823        -0.578520594
C            11.924829633        16.534054804         0.642340420
C            12.600513156        15.884914173         1.690878293
H            12.207139201        14.075880174        -1.623496185
H            11.261891646        16.261618314        -1.419108146
H            11.504514205        17.522773154         0.787295258
H            12.656560146        16.359370014         2.636074664
Cl           -5.303672644         3.193841153        15.937840424
Cl           -5.445042078         4.118204976        18.288844262
C            -4.835648447         2.706617371        16.782832930
C            -4.854394005         3.235783555        18.071511641
C            -3.954253422         2.701506842        19.011384376
C            -3.464270573         1.403411551        18.897900323
C            -3.611803770         0.751156535        17.666164755
C            -4.300880593         1.426824020        16.638191542
H            -3.772394865         3.165934811        19.960936470
H            -2.900643610         0.994261274        19.719528530
H            -3.184316439        -0.232127094        17.521970611
H            -4.373549299         1.011161575        15.667674101
